Circuit: * C:\Users\Ranjeet Singh\Documents\LTspiceXVII\Project\22nm.asc

Direct Newton iteration failed to find .op point.  (Use ".option noopiter" to skip.)
Starting Gmin stepping
Gmin = 10
Gmin = 1.07374
Gmin = 0.115292
Gmin = 0.0123794
Gmin = 0.00132923
Gmin = 0.000142725
Gmin = 1.5325e-005
Gmin = 1.6455e-006
Gmin = 1.76685e-007
Gmin = 1.89714e-008
Gmin = 2.03704e-009
Gmin = 2.18725e-010
Gmin = 2.34854e-011
Gmin = 2.52173e-012
Gmin = 2.70769e-013
Gmin = 0
Gmin stepping succeeded in finding the operating point.


Date: Wed Nov 08 21:58:47 2023
Total elapsed time: 0.231 seconds.

tnom = 27
temp = 27
method = trap
totiter = 393
traniter = 0
tranpoints = 0
accept = 0
rejected = 0
matrix size = 137
fillins = 6
solver = Normal
Matrix Compiler1:    1097 opcodes
Matrix Compiler2: 16.26 KB object code size  2.4/3.7/[1.2]

