Circuit: * C:\Users\Ranjeet Singh\Documents\LTspiceXVII\Project\Draft2.asc

Error on line 3 : v1 p002 0 v
	 Unknown parameter "v"
V1: Missing value, assumed 0V @ DC

Date: Wed Nov 01 02:41:34 2023
Total elapsed time: 0.077 seconds.

tnom = 27
temp = 27
method = trap
totiter = 25
traniter = 0
tranpoints = 0
accept = 0
rejected = 0
matrix size = 8
fillins = 0
solver = Normal
Matrix Compiler1: 336 bytes object code size
Matrix Compiler2: 656 bytes object code size
