Circuit: * C:\Users\Ranjeet Singh\Documents\LTspiceXVII\Project\Draft1.asc

Limiting rise time of source v2 to 3.5e-07
Limiting fall time of source v2 to 3.5e-07
Direct Newton iteration for .op point succeeded.
Heightened Def Con from 0.00519596 to 0.00519596

Date: Tue Apr 23 18:32:28 2024
Total elapsed time: 13.347 seconds.

tnom = 27
temp = 27
method = modified trap
totiter = 4685104
traniter = 4685097
tranpoints = 1953406
accept = 1389735
rejected = 563672
matrix size = 15
fillins = 6
solver = Normal
Avg thread counts: 1.0/1.0/1.0/1.0
Matrix Compiler1: 966 bytes object code size  0.7/0.5/[0.4]
Matrix Compiler2: 1.17 KB object code size  0.3/0.4/[0.3]

